IEEE14_SE_ANAREDE.PWF
TITU
IEEE 14 Bus Test Case - Substation Level                                        
DBAR
(Num)OETGb(   nome   )Gl( V)( A)( Pg)( Qg)( Qn)( Qm)(Bc  )( Pl)( Ql)( Sh)Are(Vf)M(1)(2)(3)(4)(5)(6)(7)(8)(9)(10
    1 L2  Barra-01--HV  1060  0.232.4-23.5-999999999                       11000                                   
    2 L1  Barra-02--HV  1045 -5.  40.27.29 -40.  50.       21.7 12.7       11000                                   
    3 L1  Barra-03--HV  1010-13.   0.18.05   0.  40.       94.2  19.       11000                                   
    4 L   Barra-04--HV  1029-10.                                           11000                                   
    5 L   Barra-05--HV  1035-8.9                            7.6  1.6       11000                                   
    6 L1  Barra-06--LV  1070-15.   0.40.38  -6.  24.       11.2  7.5       11000                                   
    7 L   Barra-07--ZV  1056-14.                                           11000                                   
    8 L1  Barra-08--TV  1090-14.   0.21.13  -6.  24.                       11000                                   
    9 L   Barra-09--LV  1050-15.                           29.5 16.6  19.  11000                                   
   10 L   Barra-10--LV  1046-15.                             9.  5.8       11000                                   
   11 L   Barra-11--LV  1054-15.                            3.5  1.8       11000                                   
   12 L   Barra-12--LV  1055-15.                            6.1  1.6       11000                                   
   13 L   Barra-13--LV  1049-16.                           13.5  5.8       11000                                   
   14 L   Barra-14--LV  1032-16.                           14.9   5.       11000                                   
   15 L   Barra15-SE04  1029-10.                                           11000                                   
   16 L   Barra16-SE04  1029-10.                                           11000                                   
   17 L   Barra17-SE04  1029-10.                           47.8 -3.9       11000                                   
   18 L   Barra18-SE04  1029-10.                                           11000                                   
   19 L   Barra19-SE04  1029-10.                                           11000                                   
   20 L   Barra20-SE04  1029-10.                                           11000                                   
   21 L   Barra21-SE04  1029-10.                                           11000                                   
99999
DLIN
(De )d O d(Pa )NcEP ( R% )( X% )(Mvar)(Tap)(Tmn)(Tmx)(Phs)(Bc  )(Cn)(Ce)Ns(Cq)(1)(2)(3)(4)(5)(6)(7)(8)(9)(10
    1         2 1    1.938 5.917  5.28                          99999999  9999                                
    1         5 1    5.40322.304  4.92                          99999999  9999                                
    2         3 1    4.69919.797  4.38                          99999999  9999                                
    2         5 1    5.69517.388  3.46                          99999999  9999                                
    2        19 1    5.81117.362   3.4                          99999999  9999                                
    3        20 1    6.70117.103  1.28                          99999999  9999                                
    4        15 1           .001                                99999999  9999                                
    4        16 1           .001                                99999999  9999                                
    4        17 1           .001                                99999999  9999                                
    5         6 1         25.202         1.                     99999999  9999                                
    5        18 1    1.335 4.211                                99999999  9999                                
    6        11 1    9.498 19.89                                99999999  9999                                
    6        12 1   12.29125.581                                99999999  9999                                
    6        13 1    6.61513.027                                99999999  9999                                
    7         8 1         17.615         1.                     99999999  9999                                
    7         9 1         11.001         1.                     99999999  9999                                
    7        16 1         20.912         1.                     99999999  9999                                
    9        10 1    3.181  8.45                                99999999  9999                                
    9        14 1   12.71127.038                                99999999  9999                                
   10        11 1    8.20519.207                                99999999  9999                                
   12        13 1   22.09219.988                                99999999  9999                                
   13        14 1   17.09334.802                                99999999  9999                                
   15         9 1         55.618         1.                     99999999  9999                                
   15        18 1           .001                                99999999  9999                                
   16        19 1D         9999.                                99999999  9999                                
   17        20 1D         9999.                                99999999  9999                                
   18        21 1           .001                                99999999  9999                                
   19        21 1           .001                                99999999  9999                                
   20        21 1           .001                                99999999  9999                                
99999
FIM
